@<TRIPOS>MOLECULE
/tmp_id_3ffmvpctum/tmp0.pdb
 30 31 0 0 0
SMALL
GASTEIGER

@<TRIPOS>ATOM
      1  C          8.8950   -2.6600  -14.6700 C.3     1  UNL1        0.0513
      2  C          9.0760   -1.3990  -15.5030 C.3     1  UNL1        0.2089
      3  O          8.7980   -0.2670  -14.6900 O.3     1  UNL1       -0.4454
      4  O         10.9400    0.0140  -13.8950 O.2     1  UNL1       -0.2449
      5  C          9.7290    0.0320  -13.7410 C.2     1  UNL1        0.3412
      6  C          9.0760    0.3920  -12.4570 C.ar    1  UNL1        0.0757
      7  C          7.7600    0.0290  -12.2520 C.ar    1  UNL1        0.0066
      8  C          9.8050    1.0800  -11.5080 C.ar    1  UNL1        0.0066
      9  C          7.8620    1.0640  -10.0710 C.ar    1  UNL1        0.0755
     10  C          7.1480    0.3680  -11.0460 C.ar    1  UNL1        0.0066
     11  C          9.1910    1.4190  -10.3020 C.ar    1  UNL1        0.0066
     12  O          7.2580    0.7440   -7.7790 O.2     1  UNL1       -0.2451
     13  C          7.2230    1.4170   -8.8140 C.2     1  UNL1        0.3380
     14  O          6.5570    2.6020   -8.8830 O.3     1  UNL1       -0.4771
     15  H          6.0230    2.7680   -8.0770 H       1  UNL1        0.2954
     16  C          7.4440   -2.8490  -14.2440 C.3     1  UNL1        0.0513
     17  C          7.3380   -3.6260  -12.9390 C.3     1  UNL1        0.2089
     18  O          6.0740   -4.2740  -12.8930 O.3     1  UNL1       -0.4454
     19  O          5.2150   -2.8280  -11.3210 O.2     1  UNL1       -0.2449
     20  C          5.2600   -3.9240  -11.8590 C.2     1  UNL1        0.3412
     21  C          4.4070   -5.0680  -11.4490 C.ar    1  UNL1        0.0757
     22  C          4.9410   -6.3400  -11.4730 C.ar    1  UNL1        0.0066
     23  C          3.1070   -4.8240  -11.0570 C.ar    1  UNL1        0.0066
     24  C          2.8210   -7.1940  -10.6890 C.ar    1  UNL1        0.0755
     25  C          4.1390   -7.4150  -11.0890 C.ar    1  UNL1        0.0066
     26  C          2.3050   -5.8990  -10.6730 C.ar    1  UNL1        0.0066
     27  O          2.1010   -9.4760  -10.6950 O.2     1  UNL1       -0.2451
     28  C          1.9860   -8.3160  -10.2880 C.2     1  UNL1        0.3380
     29  O          1.0320   -7.9560   -9.3860 O.3     1  UNL1       -0.4771
     30  H          1.3370   -7.2280   -8.8020 H       1  UNL1        0.2954
@<TRIPOS>BOND
     1     2     3    1
     2     2     1    1
     3     3     5    1
     4     1    16    1
     5    16    17    1
     6     4     5    2
     7     5     6    1
     8    17    18    1
     9    18    20    1
    10     6     7   ar
    11     6     8   ar
    12     7    10   ar
    13    20    21    1
    14    20    19    2
    15     8    11   ar
    16    22    21   ar
    17    22    25   ar
    18    21    23   ar
    19    25    24   ar
    20    23    26   ar
    21    10     9   ar
    22    27    28    2
    23    24    26   ar
    24    24    28    1
    25    11     9   ar
    26    28    29    1
    27     9    13    1
    28    29    30    1
    29    14    13    1
    30    14    15    1
    31    13    12    2
