@<TRIPOS>MOLECULE
/tmp_id_23vewhmr4k3/tmp0.pdb
 30 31 0 0 0
SMALL
GASTEIGER

@<TRIPOS>ATOM
      1  C          8.5610    6.3460    2.6890 C.3     1  UNL1        0.0513
      2  C          9.9930    5.8430    2.5650 C.3     1  UNL1        0.2089
      3  O         10.8810    6.9370    2.7480 O.3     1  UNL1       -0.4454
      4  O         12.7180    5.6150    2.3270 O.2     1  UNL1       -0.2449
      5  C         12.1860    6.7090    2.4280 C.2     1  UNL1        0.3412
      6  C         12.9080    7.9890    2.2120 C.ar    1  UNL1        0.0757
      7  C         12.6150    9.0650    3.0260 C.ar    1  UNL1        0.0066
      8  C         13.8470    8.0620    1.2040 C.ar    1  UNL1        0.0066
      9  C         14.2470   10.3670    1.8090 C.ar    1  UNL1        0.0755
     10  C         13.2930   10.2660    2.8220 C.ar    1  UNL1        0.0066
     11  C         14.5240    9.2650    1.0010 C.ar    1  UNL1        0.0066
     12  O         16.0740   11.7340    1.0920 O.2     1  UNL1       -0.2451
     13  C         14.9530   11.6210    1.5970 C.2     1  UNL1        0.3380
     14  O         14.2380   12.6990    2.0220 O.3     1  UNL1       -0.4771
     15  H         13.3850   12.4340    2.4260 H       1  UNL1        0.2954
     16  C          8.1110    7.0760    1.4280 C.3     1  UNL1        0.0513
     17  C          8.5770    6.3600    0.1690 C.3     1  UNL1        0.2089
     18  O          9.0680    7.3260   -0.7520 O.3     1  UNL1       -0.4454
     19  O         11.2670    6.6510   -0.8300 O.2     1  UNL1       -0.2449
     20  C         10.4160    7.5220   -0.7510 C.2     1  UNL1        0.3412
     21  C         10.7370    8.9680   -0.6360 C.ar    1  UNL1        0.0757
     22  C         10.0860    9.7220    0.3190 C.ar    1  UNL1        0.0066
     23  C         11.6750    9.5110   -1.4890 C.ar    1  UNL1        0.0066
     24  C         11.3320   11.6530   -0.4250 C.ar    1  UNL1        0.0755
     25  C         10.3860   11.0800    0.4250 C.ar    1  UNL1        0.0066
     26  C         11.9760   10.8700   -1.3820 C.ar    1  UNL1        0.0066
     27  O         12.7650   13.5690   -0.4630 O.2     1  UNL1       -0.2451
     28  C         11.6450   13.0690   -0.3130 C.2     1  UNL1        0.3380
     29  O         10.5500   13.8220   -0.0200 O.3     1  UNL1       -0.4771
     30  H         10.7910   14.7490    0.1970 H       1  UNL1        0.2954
@<TRIPOS>BOND
     1    23    26   ar
     2    23    21   ar
     3    26    24   ar
     4    19    20    2
     5    18    20    1
     6    18    17    1
     7    20    21    1
     8    21    22   ar
     9    27    28    2
    10    24    28    1
    11    24    25   ar
    12    28    29    1
    13    29    30    1
    14    17    16    1
    15    22    25   ar
    16    11     8   ar
    17    11     9   ar
    18    12    13    2
    19     8     6   ar
    20    16     1    1
    21    13     9    1
    22    13    14    1
    23     9    10   ar
    24    14    15    1
    25     6     5    1
    26     6     7   ar
    27     4     5    2
    28     5     3    1
    29     2     1    1
    30     2     3    1
    31    10     7   ar
