@<TRIPOS>MOLECULE
/tmp_id_vgh3f4lbcv/tmp0.pdb
 14 14 0 0 0
SMALL
GASTEIGER

@<TRIPOS>ATOM
      1  N         13.9390   18.8000   29.1910 N.3    33  TYI33      -0.1241
      2  CA        14.4630   18.0370   30.3150 C.3    33  TYI33       0.1605
      3  CB        14.0560   16.5680   30.1640 C.3    33  TYI33       0.0534
      4  CG        12.5620   16.3700   30.2030 C.ar   33  TYI33      -0.0192
      5  CD1       11.8110   16.3440   29.0320 C.ar   33  TYI33       0.0048
      6  CE1       10.4550   16.1630   29.1260 C.ar   33  TYI33       0.0690
      7  CD2       11.8970   16.2140   31.4090 C.ar   33  TYI33       0.0048
      8  CE2       10.5260   16.0330   31.4840 C.ar   33  TYI33       0.0690
      9  CZ         9.7970   16.0100   30.3160 C.ar   33  TYI33       0.2062
     10  OH         8.4330   15.8270   30.3490 O.3    33  TYI33      -0.2857
     11  C         15.9780   18.1240   30.4060 C.2    33  TYI33       0.2264
     12  O         16.6760   17.1730   30.0370 O.2    33  TYI33      -0.2867
     13  I1         9.2630   16.2730   27.4040 I      33  TYI33      -0.0392
     14  I2         9.6180   14.9870   33.4410 I      33  TYI33      -0.0392
@<TRIPOS>BOND
     1    13     6    1
     2     5     6   ar
     3     5     4   ar
     4     6     9   ar
     5     1     2    1
     6    12    11    2
     7     3     4    1
     8     3     2    1
     9     4     7   ar
    10     2    11    1
    11     9    10    1
    12     9     8   ar
    13     7     8   ar
    14     8    14    1
