@<TRIPOS>MOLECULE
/tmp_id_1952hmxxn5d/tmp0.pdb
 14 14 0 0 0
SMALL
GASTEIGER

@<TRIPOS>ATOM
      1  N          4.5650    7.5560    0.8950 N.3   177  TYI177     -0.1241
      2  CA         5.2500    6.3900    1.4540 C.3   177  TYI177      0.1605
      3  CB         6.7080    6.7070    1.8110 C.3   177  TYI177      0.0534
      4  CG         7.4640    7.2940    0.6410 C.ar  177  TYI177     -0.0192
      5  CD1        8.0020    8.5690    0.7430 C.ar  177  TYI177      0.0048
      6  CE1        8.6900    9.1230   -0.3150 C.ar  177  TYI177      0.0690
      7  CD2        7.6190    6.5750   -0.5500 C.ar  177  TYI177      0.0048
      8  CE2        8.3090    7.1620   -1.5810 C.ar  177  TYI177      0.0690
      9  CZ         8.8450    8.4170   -1.4900 C.ar  177  TYI177      0.2062
     10  OH         9.5370    8.9780   -2.5410 O.3   177  TYI177     -0.2857
     11  C          4.5200    5.8450    2.6690 C.2   177  TYI177      0.2264
     12  O          4.4470    4.6230    2.7840 O.2   177  TYI177     -0.2867
     13  I1         9.5460   11.0410   -0.3340 I     177  TYI177     -0.0392
     14  I2         8.2950    6.1470   -3.4340 I     177  TYI177     -0.0392
@<TRIPOS>BOND
     1    14     8    1
     2    10     9    1
     3     8     9   ar
     4     8     7   ar
     5     9     6   ar
     6     7     4   ar
     7    13     6    1
     8     6     5   ar
     9     4     5   ar
    10     4     3    1
    11     1     2    1
    12     2     3    1
    13     2    11    1
    14    11    12    2
