@<TRIPOS>MOLECULE
/tmp_id_bompcfxuwdr/tmp0.pdb
 30 31 0 0 0
SMALL
GASTEIGER

@<TRIPOS>ATOM
      1  C        -11.5680   40.9930   21.5460 C.3     1  UNL1        0.0513
      2  C        -12.3090   41.1650   20.2280 C.3     1  UNL1        0.2089
      3  O        -12.0250   40.0500   19.3930 O.3     1  UNL1       -0.4454
      4  O        -13.6440   38.6520   20.2430 O.2     1  UNL1       -0.2449
      5  C        -12.5210   38.8500   19.8060 C.2     1  UNL1        0.3412
      6  C        -11.5030   37.7800   19.6590 C.ar    1  UNL1        0.0757
      7  C        -11.7710   36.5280   20.1750 C.ar    1  UNL1        0.0066
      8  C        -10.3190   38.0700   19.0110 C.ar    1  UNL1        0.0066
      9  C         -9.6090   35.7920   19.3870 C.ar    1  UNL1        0.0755
     10  C        -10.8140   35.5230   20.0360 C.ar    1  UNL1        0.0066
     11  C         -9.3620   37.0650   18.8740 C.ar    1  UNL1        0.0066
     12  O         -8.1580   34.3290   18.1710 O.2     1  UNL1       -0.2451
     13  C         -8.6120   34.7430   19.2420 C.2     1  UNL1        0.3380
     14  O         -8.2080   34.2410   20.4420 O.3     1  UNL1       -0.4771
     15  H         -8.5090   34.7980   21.1910 H       1  UNL1        0.2954
     16  C        -12.3010   41.6730   22.6970 C.3     1  UNL1        0.0513
     17  C        -12.7400   40.6700   23.7530 C.3     1  UNL1        0.2089
     18  O        -12.3970   39.3620   23.3140 O.3     1  UNL1       -0.4454
     19  O        -12.8990   38.2590   25.2710 O.2     1  UNL1       -0.2449
     20  C        -12.1910   38.4370   24.2930 C.2     1  UNL1        0.3412
     21  C        -10.9630   37.6480   24.0210 C.ar    1  UNL1        0.0757
     22  C        -10.7300   36.5020   24.7540 C.ar    1  UNL1        0.0066
     23  C        -10.0930   38.0850   23.0440 C.ar    1  UNL1        0.0066
     24  C         -8.6800   36.1830   23.5160 C.ar    1  UNL1        0.0755
     25  C         -9.5750   35.7620   24.5000 C.ar    1  UNL1        0.0066
     26  C         -8.9380   37.3440   22.7880 C.ar    1  UNL1        0.0066
     27  O         -6.5490   35.7590   22.5130 O.2     1  UNL1       -0.2451
     28  C         -7.4770   35.4100   23.2510 C.2     1  UNL1        0.3380
     29  O         -7.4650   34.2230   23.9160 O.3     1  UNL1       -0.4771
     30  H         -7.9990   33.5400   23.4550 H       1  UNL1        0.2954
@<TRIPOS>BOND
     1    12    13    2
     2    11     8   ar
     3    11     9   ar
     4     8     6   ar
     5    13     9    1
     6    13    14    1
     7     9    10   ar
     8     3     5    1
     9     3     2    1
    10     6     5    1
    11     6     7   ar
    12     5     4    2
    13    10     7   ar
    14     2     1    1
    15    14    15    1
    16     1    16    1
    17    27    28    2
    18    16    17    1
    19    26    23   ar
    20    26    24   ar
    21    23    21   ar
    22    28    24    1
    23    28    29    1
    24    18    17    1
    25    18    20    1
    26    30    29    1
    27    24    25   ar
    28    21    20    1
    29    21    22   ar
    30    20    19    2
    31    25    22   ar
