@<TRIPOS>MOLECULE
/tmp_id_a7tt77bkkb9/tmp0.pdb
 30 31 0 0 0
SMALL
GASTEIGER

@<TRIPOS>ATOM
      1  C         -2.9130   14.9990   -4.8500 C.3     1  UNL1        0.0513
      2  C         -3.9630   15.5790   -5.7880 C.3     1  UNL1        0.2089
      3  O         -3.4110   15.6700   -7.0950 O.3     1  UNL1       -0.4454
      4  O         -4.3580   13.7340   -7.9050 O.2     1  UNL1       -0.2449
      5  C         -3.4310   14.5250   -7.8340 C.2     1  UNL1        0.3412
      6  C         -2.1500   14.3480   -8.5650 C.ar    1  UNL1        0.0757
      7  C         -2.1730   14.2820   -9.9440 C.ar    1  UNL1        0.0066
      8  C         -0.9780   14.2550   -7.8440 C.ar    1  UNL1        0.0066
      9  C          0.2280   14.0170   -9.9240 C.ar    1  UNL1        0.0755
     10  C         -0.9710   14.1150  -10.6300 C.ar    1  UNL1        0.0066
     11  C          0.2240   14.0880   -8.5310 C.ar    1  UNL1        0.0066
     12  O          2.1820   14.7570  -11.0880 O.2     1  UNL1       -0.2451
     13  C          1.4820   13.8440  -10.6400 C.2     1  UNL1        0.3380
     14  O          1.8270   12.5340  -10.7750 O.3     1  UNL1       -0.4771
     15  H          1.7500   12.0470   -9.9270 H       1  UNL1        0.2954
     16  C         -3.5110   13.9540   -3.9150 C.3     1  UNL1        0.0513
     17  C         -3.7460   12.6310   -4.6290 C.3     1  UNL1        0.2089
     18  O         -5.1460   12.3940   -4.7030 O.3     1  UNL1       -0.4454
     19  O         -5.3730   10.1500   -4.2410 O.2     1  UNL1       -0.2449
     20  C         -5.6100   11.3230   -4.0000 C.2     1  UNL1        0.3412
     21  C         -6.4650   11.7670   -2.8700 C.ar    1  UNL1        0.0757
     22  C         -7.0650   13.0070   -2.9340 C.ar    1  UNL1        0.0066
     23  C         -6.6320   10.9240   -1.7900 C.ar    1  UNL1        0.0066
     24  C         -8.0530   12.5910   -0.7690 C.ar    1  UNL1        0.0755
     25  C         -7.8670   13.4240   -1.8710 C.ar    1  UNL1        0.0066
     26  C         -7.4350   11.3410   -0.7280 C.ar    1  UNL1        0.0066
     27  O         -9.2920   14.1790    0.5220 O.2     1  UNL1       -0.2451
     28  C         -8.8900   13.0250    0.3380 C.2     1  UNL1        0.3380
     29  O         -9.2040   12.0060    1.1840 O.3     1  UNL1       -0.4771
     30  H         -8.4900   11.3320    1.2250 H       1  UNL1        0.2954
@<TRIPOS>BOND
     1    12    13    2
     2    14    13    1
     3    14    15    1
     4    13     9    1
     5    10     7   ar
     6    10     9   ar
     7     7     6   ar
     8     9    11   ar
     9     6     8   ar
    10     6     5    1
    11    11     8   ar
    12     4     5    2
    13     5     3    1
    14     3     2    1
    15     2     1    1
    16     1    16    1
    17    18    17    1
    18    18    20    1
    19    17    16    1
    20    19    20    2
    21    20    21    1
    22    22    21   ar
    23    22    25   ar
    24    21    23   ar
    25    25    24   ar
    26    23    26   ar
    27    24    26   ar
    28    24    28    1
    29    28    27    2
    30    28    29    1
    31    29    30    1
