@<TRIPOS>MOLECULE
/tmp_id_nxm5q017a2o/tmp0.pdb
 30 31 0 0 0
SMALL
GASTEIGER

@<TRIPOS>ATOM
      1  C         -2.3760  -15.5650  -17.1460 C.3     1  UNL1        0.0513
      2  C         -2.8610  -14.5760  -18.1960 C.3     1  UNL1        0.2089
      3  O         -2.1340  -13.3640  -18.0550 O.3     1  UNL1       -0.4454
      4  O         -3.8760  -11.9370  -17.5770 O.2     1  UNL1       -0.2449
      5  C         -2.7560  -12.3700  -17.3600 C.2     1  UNL1        0.3412
      6  C         -1.8810  -11.8600  -16.2740 C.ar    1  UNL1        0.0757
      7  C         -1.0670  -10.7740  -16.5270 C.ar    1  UNL1        0.0066
      8  C         -1.9070  -12.4880  -15.0460 C.ar    1  UNL1        0.0066
      9  C         -0.2540  -10.9130  -14.2570 C.ar    1  UNL1        0.0755
     10  C         -0.2460  -10.2950  -15.5070 C.ar    1  UNL1        0.0066
     11  C         -1.0850  -12.0090  -14.0260 C.ar    1  UNL1        0.0066
     12  O          1.8220  -10.5910  -13.1130 O.2     1  UNL1       -0.2451
     13  C          0.6030  -10.4140  -13.1930 C.2     1  UNL1        0.3380
     14  O         -0.0880   -9.7050  -12.2580 O.3     1  UNL1       -0.4771
     15  H         -0.9600   -9.4080  -12.5960 H       1  UNL1        0.2954
     16  C         -3.4220  -15.7890  -16.0580 C.3     1  UNL1        0.0513
     17  C         -3.5260  -17.2570  -15.6740 C.3     1  UNL1        0.2089
     18  O         -3.1800  -17.3980  -14.3020 O.3     1  UNL1       -0.4454
     19  O         -1.1090  -18.3880  -14.4650 O.2     1  UNL1       -0.2449
     20  C         -1.8520  -17.5230  -14.0300 C.2     1  UNL1        0.3412
     21  C         -1.4000  -16.4480  -13.1100 C.ar    1  UNL1        0.0757
     22  C         -2.3460  -15.6480  -12.5030 C.ar    1  UNL1        0.0066
     23  C         -0.0480  -16.2840  -12.8910 C.ar    1  UNL1        0.0066
     24  C         -0.5590  -14.4510  -11.4020 C.ar    1  UNL1        0.0755
     25  C         -1.9210  -14.6370  -11.6410 C.ar    1  UNL1        0.0066
     26  C          0.3770  -15.2730  -12.0270 C.ar    1  UNL1        0.0066
     27  O         -0.4460  -12.2090  -10.5730 O.2     1  UNL1       -0.2451
     28  C         -0.1170  -13.3980  -10.5020 C.2     1  UNL1        0.3380
     29  O          0.7220  -13.8600   -9.5340 O.3     1  UNL1       -0.4771
     30  H          0.2530  -14.4300   -8.8870 H       1  UNL1        0.2954
@<TRIPOS>BOND
     1     2     3    1
     2     2     1    1
     3     3     5    1
     4     4     5    2
     5     5     6    1
     6     1    16    1
     7     7     6   ar
     8     7    10   ar
     9     6     8   ar
    10    16    17    1
    11    17    18    1
    12    10     9   ar
    13     8    11   ar
    14    19    20    2
    15    18    20    1
    16     9    11   ar
    17     9    13    1
    18    20    21    1
    19    13    12    2
    20    13    14    1
    21    21    23   ar
    22    21    22   ar
    23    23    26   ar
    24    15    14    1
    25    22    25   ar
    26    26    24   ar
    27    25    24   ar
    28    24    28    1
    29    27    28    2
    30    28    29    1
    31    29    30    1
