@<TRIPOS>MOLECULE
21977638
 46 47 0 0 0
SMALL
GASTEIGER

@<TRIPOS>ATOM
      1 O           3.0134    0.5043   -0.0018 O.3     1  UNL1111111   -0.4612
      2 O          -3.0136   -0.5041    0.0055 O.3     1  UNL1111111   -0.4612
      3 O           3.8034    2.6661    0.0377 O.2     1  UNL1111111   -0.2450
      4 O          -3.8033   -2.6662    0.0362 O.2     1  UNL1111111   -0.2450
      5 O          10.0928   -0.1401   -0.6078 O.3     1  UNL1111111   -0.4771
      6 O         -10.0915    0.1420   -0.6138 O.3     1  UNL1111111   -0.4771
      7 O           9.4458   -2.0214    0.4915 O.2     1  UNL1111111   -0.2451
      8 O          -9.4469    2.0197    0.4930 O.2     1  UNL1111111   -0.2451
      9 C           0.7304   -0.2177   -0.0261 C.3     1  UNL1111111   -0.0155
     10 C          -0.7305    0.2181   -0.0112 C.3     1  UNL1111111   -0.0155
     11 C           1.6735    0.9766   -0.0015 C.3     1  UNL1111111    0.0929
     12 C          -1.6734   -0.9766    0.0074 C.3     1  UNL1111111    0.0929
     13 C           5.3338    0.8380    0.0147 C.3     1  UNL1111111    0.0590
     14 C          -5.3337   -0.8380    0.0160 C.3     1  UNL1111111    0.0590
     15 C           3.9850    1.4587    0.0190 C.2     1  UNL1111111    0.3392
     16 C          -3.9849   -1.4587    0.0211 C.2     1  UNL1111111    0.3392
     17 C           5.4999   -0.4008    0.5995 C.3     1  UNL1111111   -0.0470
     18 C          -5.5012    0.3988    0.6044 C.3     1  UNL1111111   -0.0470
     19 C           6.3795    1.5198   -0.5731 C.3     1  UNL1111111   -0.0470
     20 C          -6.3782   -1.5180   -0.5764 C.3     1  UNL1111111   -0.0470
     21 C           7.8407   -0.3142    0.0086 C.3     1  UNL1111111    0.0589
     22 C          -7.8409    0.3142    0.0081 C.3     1  UNL1111111    0.0589
     23 C           6.7673   -0.9832    0.5964 C.3     1  UNL1111111   -0.0470
     24 C          -6.7686    0.9812    0.6005 C.3     1  UNL1111111   -0.0470
     25 C           7.6469    0.9372   -0.5761 C.3     1  UNL1111111   -0.0470
     26 C          -7.6457   -0.9354   -0.5804 C.3     1  UNL1111111   -0.0470
     27 C           9.1618   -0.9218    0.0049 C.2     1  UNL1111111    0.3368
     28 C          -9.1617    0.9217    0.0035 C.2     1  UNL1111111    0.3368
     29 H           0.9429   -0.8634    0.8353 H       1  UNL1111111    0.0299
     30 H           0.9368   -0.8269   -0.9150 H       1  UNL1111111    0.0299
     31 H          -0.9307    0.8494    0.8637 H       1  UNL1111111    0.0299
     32 H          -0.9494    0.8417   -0.8870 H       1  UNL1111111    0.0299
     33 H           1.4985    1.5743    0.9009 H       1  UNL1111111    0.0697
     34 H           1.5069    1.6042   -0.8849 H       1  UNL1111111    0.0697
     35 H          -1.5058   -1.6004   -0.8785 H       1  UNL1111111    0.0697
     36 H          -1.4995   -1.5779    0.9075 H       1  UNL1111111    0.0697
     37 H           4.6835   -0.9359    1.0753 H       1  UNL1111111    0.0626
     38 H          -4.6860    0.9323    1.0838 H       1  UNL1111111    0.0626
     39 H           6.2397    2.4930   -1.0341 H       1  UNL1111111    0.0626
     40 H          -6.2373   -2.4898   -1.0405 H       1  UNL1111111    0.0626
     41 H           6.8984   -1.9576    1.0598 H       1  UNL1111111    0.0626
     42 H          -6.9007    1.9541    1.0669 H       1  UNL1111111    0.0626
     43 H           8.4544    1.4923   -1.0454 H       1  UNL1111111    0.0626
     44 H          -8.4520   -1.4889   -1.0533 H       1  UNL1111111    0.0626
     45 H          10.9798   -0.5592   -0.6054 H       1  UNL1111111    0.2954
     46 H         -10.9785    0.5612   -0.6119 H       1  UNL1111111    0.2954
@<TRIPOS>BOND
     1     1    11    1
     2     1    15    1
     3     2    12    1
     4     2    16    1
     5     3    15    2
     6     4    16    2
     7     5    27    1
     8     5    45    1
     9     6    28    1
    10     6    46    1
    11     7    27    2
    12     8    28    2
    13     9    10    1
    14     9    11    1
    15     9    29    1
    16     9    30    1
    17    10    12    1
    18    10    31    1
    19    10    32    1
    20    11    33    1
    21    11    34    1
    22    12    35    1
    23    12    36    1
    24    13    15    1
    25    13    17   ar
    26    13    19   ar
    27    14    16    1
    28    14    18   ar
    29    14    20   ar
    30    17    23   ar
    31    17    37    1
    32    18    24   ar
    33    18    38    1
    34    19    25   ar
    35    19    39    1
    36    20    26   ar
    37    20    40    1
    38    21    23   ar
    39    21    25   ar
    40    21    27    1
    41    22    24   ar
    42    22    26   ar
    43    22    28    1
    44    23    41    1
    45    24    42    1
    46    25    43    1
    47    26    44    1
