@<TRIPOS>MOLECULE
/tmp_id_u29cjcpgycd/tmp0.pdb
 30 31 0 0 0
SMALL
GASTEIGER

@<TRIPOS>ATOM
      1  C        -15.2630   -7.4760   -9.5680 C.3     1  UNL1        0.0513
      2  C        -16.2470   -6.5830  -10.3110 C.3     1  UNL1        0.2089
      3  O        -16.0990   -5.2490   -9.8430 O.3     1  UNL1       -0.4454
      4  O        -16.9700   -4.1950  -11.6950 O.2     1  UNL1       -0.2449
      5  C        -16.8400   -4.3030  -10.4860 C.2     1  UNL1        0.3412
      6  C        -17.4920   -3.3920   -9.5110 C.ar    1  UNL1        0.0757
      7  C        -18.8590   -3.4680   -9.3370 C.ar    1  UNL1        0.0066
      8  C        -16.7090   -2.4970   -8.8100 C.ar    1  UNL1        0.0066
      9  C        -18.7010   -1.6970   -7.7010 C.ar    1  UNL1        0.0755
     10  C        -19.4690   -2.6110   -8.4220 C.ar    1  UNL1        0.0066
     11  C        -17.3210   -1.6400   -7.8950 C.ar    1  UNL1        0.0066
     12  O        -19.6170   -1.0870   -5.5770 O.2     1  UNL1       -0.2451
     13  C        -19.3380   -0.8040   -6.7460 C.2     1  UNL1        0.3380
     14  O        -19.6100    0.4190   -7.2790 O.3     1  UNL1       -0.4771
     15  H        -18.8720    1.0510   -7.1360 H       1  UNL1        0.2954
     16  C        -15.9660   -8.6480   -8.8930 C.3     1  UNL1        0.0513
     17  C        -17.3430   -8.2550   -8.3780 C.3     1  UNL1        0.2089
     18  O        -17.1900   -7.5470   -7.1540 O.3     1  UNL1       -0.4454
     19  O        -19.0780   -6.2590   -7.4280 O.2     1  UNL1       -0.2449
     20  C        -17.9390   -6.4180   -7.0180 C.2     1  UNL1        0.3412
     21  C        -17.1810   -5.3680   -6.2920 C.ar    1  UNL1        0.0757
     22  C        -15.8140   -5.2910   -6.4660 C.ar    1  UNL1        0.0066
     23  C        -17.8660   -4.5030   -5.4640 C.ar    1  UNL1        0.0066
     24  C        -15.7720   -3.4180   -4.9400 C.ar    1  UNL1        0.0755
     25  C        -15.1020   -4.3050   -5.7810 C.ar    1  UNL1        0.0066
     26  C        -17.1540   -3.5170   -4.7810 C.ar    1  UNL1        0.0066
     27  O        -15.4830   -1.3010   -3.8630 O.2     1  UNL1       -0.2451
     28  C        -15.0290   -2.3910   -4.2280 C.2     1  UNL1        0.3380
     29  O        -13.7390   -2.7540   -3.9870 O.3     1  UNL1       -0.4771
     30  H        -13.1530   -1.9740   -3.8870 H       1  UNL1        0.2954
@<TRIPOS>BOND
     1     4     5    2
     2     5     3    1
     3     5     6    1
     4     2     3    1
     5     2     1    1
     6     1    16    1
     7     6     7   ar
     8     6     8   ar
     9     7    10   ar
    10    16    17    1
    11     8    11   ar
    12    10     9   ar
    13    17    18    1
    14    11     9   ar
    15     9    13    1
    16    19    20    2
    17    14    15    1
    18    14    13    1
    19    18    20    1
    20    20    21    1
    21    13    12    2
    22    22    21   ar
    23    22    25   ar
    24    21    23   ar
    25    25    24   ar
    26    23    26   ar
    27    24    26   ar
    28    24    28    1
    29    28    29    1
    30    28    27    2
    31    29    30    1
