@<TRIPOS>MOLECULE
/tmp_id_j0lnzjlm36o/tmp0.pdb
 30 31 0 0 0
SMALL
GASTEIGER

@<TRIPOS>ATOM
      1  C        -15.1750   -7.7540   -9.4990 C.3     1  UNL1        0.0513
      2  C        -16.4810   -8.2170   -8.8680 C.3     1  UNL1        0.2089
      3  O        -16.6130   -7.6100   -7.5900 O.3     1  UNL1       -0.4454
      4  O        -18.5090   -6.3990   -8.0800 O.2     1  UNL1       -0.2449
      5  C        -17.4270   -6.5190   -7.5270 C.2     1  UNL1        0.3412
      6  C        -16.8220   -5.4580   -6.6820 C.ar    1  UNL1        0.0757
      7  C        -15.4970   -5.1250   -6.8770 C.ar    1  UNL1        0.0066
      8  C        -17.6030   -4.8390   -5.7280 C.ar    1  UNL1        0.0066
      9  C        -15.6980   -3.4890   -5.1100 C.ar    1  UNL1        0.0755
     10  C        -14.9290   -4.1290   -6.0820 C.ar    1  UNL1        0.0066
     11  C        -17.0350   -3.8440   -4.9330 C.ar    1  UNL1        0.0066
     12  O        -15.6350   -1.3730   -3.9970 O.2     1  UNL1       -0.2451
     13  C        -15.1050   -2.4510   -4.2820 C.2     1  UNL1        0.3380
     14  O        -13.8660   -2.7890   -3.8310 O.3     1  UNL1       -0.4771
     15  H        -13.1590   -2.4550   -4.4240 H       1  UNL1        0.2954
     16  C        -15.3760   -7.3070  -10.9430 C.3     1  UNL1        0.0513
     17  C        -16.6660   -6.5190  -11.1120 C.3     1  UNL1        0.2089
     18  O        -16.4810   -5.2160  -10.5720 O.3     1  UNL1       -0.4454
     19  O        -17.6750   -4.0950  -12.1900 O.2     1  UNL1       -0.2449
     20  C        -17.3290   -4.2530  -11.0300 C.2     1  UNL1        0.3412
     21  C        -17.7960   -3.3900   -9.9150 C.ar    1  UNL1        0.0757
     22  C        -19.1490   -3.3030   -9.6610 C.ar    1  UNL1        0.0066
     23  C        -16.8610   -2.7020   -9.1700 C.ar    1  UNL1        0.0066
     24  C        -18.6620   -1.7850   -7.8450 C.ar    1  UNL1        0.0755
     25  C        -19.5870   -2.4900   -8.6150 C.ar    1  UNL1        0.0066
     26  C        -17.3000   -1.8900   -8.1230 C.ar    1  UNL1        0.0066
     27  O        -19.2230   -1.2860   -5.5740 O.2     1  UNL1       -0.2451
     28  C        -19.1190   -0.9390   -6.7550 C.2     1  UNL1        0.3380
     29  O        -19.4320    0.3200   -7.1690 O.3     1  UNL1       -0.4771
     30  H        -20.1530    0.3160   -7.8360 H       1  UNL1        0.2954
@<TRIPOS>BOND
     1    19    20    2
     2    17    16    1
     3    17    18    1
     4    20    18    1
     5    20    21    1
     6    16     1    1
     7    21    22   ar
     8    21    23   ar
     9    22    25   ar
    10     1     2    1
    11    23    26   ar
    12     2     3    1
    13    25    24   ar
    14    26    24   ar
    15     4     5    2
    16    24    28    1
    17    30    29    1
    18     3     5    1
    19     5     6    1
    20    29    28    1
    21     7     6   ar
    22     7    10   ar
    23    28    27    2
    24     6     8   ar
    25    10     9   ar
    26     8    11   ar
    27     9    11   ar
    28     9    13    1
    29    15    14    1
    30    13    12    2
    31    13    14    1
