@<TRIPOS>MOLECULE
/tmp_id_yg7skkx0l0r/tmp0.pdb
 30 31 0 0 0
SMALL
GASTEIGER

@<TRIPOS>ATOM
      1  C         -0.3340  -14.3500  -10.1310 C.3     1  UNL1        0.0513
      2  C         -1.2940  -15.5250  -10.2530 C.3     1  UNL1        0.2089
      3  O         -1.1070  -16.1410  -11.5200 O.3     1  UNL1       -0.4454
      4  O         -3.1400  -17.2050  -11.7120 O.2     1  UNL1       -0.2449
      5  C         -2.2410  -16.5200  -12.1740 C.2     1  UNL1        0.3412
      6  C         -2.2530  -15.9860  -13.5600 C.ar    1  UNL1        0.0757
      7  C         -3.4650  -15.8130  -14.1980 C.ar    1  UNL1        0.0066
      8  C         -1.0520  -15.6810  -14.1670 C.ar    1  UNL1        0.0066
      9  C         -2.2740  -14.9960  -16.1350 C.ar    1  UNL1        0.0755
     10  C         -3.4750  -15.3120  -15.4990 C.ar    1  UNL1        0.0066
     11  C         -1.0630  -15.1800  -15.4690 C.ar    1  UNL1        0.0066
     12  O         -1.2920  -14.3130  -18.2060 O.2     1  UNL1       -0.2451
     13  C         -2.2860  -14.4740  -17.4920 C.2     1  UNL1        0.3380
     14  O         -3.5420  -14.1660  -17.9210 O.3     1  UNL1       -0.4771
     15  H         -4.2130  -14.3220  -17.2230 H       1  UNL1        0.2954
     16  C         -0.4700  -13.3870  -11.3050 C.3     1  UNL1        0.0513
     17  C          0.8650  -13.1510  -11.9960 C.3     1  UNL1        0.2089
     18  O          0.6250  -12.8070  -13.3540 O.3     1  UNL1       -0.4454
     19  O          1.2430  -10.6040  -13.1080 O.2     1  UNL1       -0.2449
     20  C          0.5680  -11.4750  -13.6330 C.2     1  UNL1        0.3412
     21  C         -0.4470  -11.2000  -14.6820 C.ar    1  UNL1        0.0757
     22  C         -1.7160  -11.7190  -14.5350 C.ar    1  UNL1        0.0066
     23  C         -0.0870  -10.4340  -15.7710 C.ar    1  UNL1        0.0066
     24  C         -2.3300  -10.6900  -16.6330 C.ar    1  UNL1        0.0755
     25  C         -2.6680  -11.4620  -15.5220 C.ar    1  UNL1        0.0066
     26  C         -1.0400  -10.1760  -16.7580 C.ar    1  UNL1        0.0066
     27  O         -3.3790   -9.4000  -18.3530 O.2     1  UNL1       -0.2451
     28  C         -3.3230  -10.4210  -17.6600 C.2     1  UNL1        0.3380
     29  O         -4.2180  -11.4380  -17.7960 O.3     1  UNL1       -0.4771
     30  H         -4.3720  -11.9050  -16.9460 H       1  UNL1        0.2954
@<TRIPOS>BOND
     1    27    28    2
     2    12    13    2
     3    14    13    1
     4    14    15    1
     5    29    28    1
     6    29    30    1
     7    28    24    1
     8    13     9    1
     9    26    24   ar
    10    26    23   ar
    11    24    25   ar
    12     9    10   ar
    13     9    11   ar
    14    23    21   ar
    15    25    22   ar
    16    10     7   ar
    17    11     8   ar
    18    21    22   ar
    19    21    20    1
    20     7     6   ar
    21     8     6   ar
    22    20    18    1
    23    20    19    2
    24     6     5    1
    25    18    17    1
    26     5     4    2
    27     5     3    1
    28    17    16    1
    29     3     2    1
    30    16     1    1
    31     2     1    1
