@<TRIPOS>MOLECULE
/tmp_id_jwi3w1ije/tmp0.pdb
 30 31 0 0 0
SMALL
GASTEIGER

@<TRIPOS>ATOM
      1  C          8.3860    7.1920    1.2630 C.3     1  UNL1        0.0513
      2  C          8.7530    6.3330    2.4650 C.3     1  UNL1        0.2089
      3  O         10.0810    6.6440    2.8630 O.3     1  UNL1       -0.4454
      4  O         10.9040    4.5930    3.5060 O.2     1  UNL1       -0.2449
      5  C         10.9710    5.6130    2.8380 C.2     1  UNL1        0.3412
      6  C         12.0670    5.8850    1.8740 C.ar    1  UNL1        0.0757
      7  C         12.3780    7.1940    1.5680 C.ar    1  UNL1        0.0066
      8  C         12.7400    4.8190    1.3120 C.ar    1  UNL1        0.0066
      9  C         14.1020    6.3890    0.0800 C.ar    1  UNL1        0.0755
     10  C         13.4060    7.4490    0.6620 C.ar    1  UNL1        0.0066
     11  C         13.7690    5.0750    0.4050 C.ar    1  UNL1        0.0066
     12  O         15.9900    7.5790   -0.7810 O.2     1  UNL1       -0.2451
     13  C         15.1750    6.6560   -0.8650 C.2     1  UNL1        0.3380
     14  O         15.2010    5.7590   -1.8890 O.3     1  UNL1       -0.4771
     15  H         14.5230    5.9610   -2.5680 H       1  UNL1        0.2954
     16  C          8.1540    6.3460    0.0160 C.3     1  UNL1        0.0513
     17  C          9.4430    6.1260   -0.7600 C.3     1  UNL1        0.2089
     18  O          9.3760    4.8650   -1.4140 O.3     1  UNL1       -0.4454
     19  O         11.5060    4.9110   -2.2840 O.2     1  UNL1       -0.2449
     20  C         10.5670    4.3160   -1.7800 C.2     1  UNL1        0.3412
     21  C         10.5890    2.8610   -1.4840 C.ar    1  UNL1        0.0757
     22  C         11.6550    2.3390   -0.7810 C.ar    1  UNL1        0.0066
     23  C          9.5430    2.0760   -1.9230 C.ar    1  UNL1        0.0066
     24  C         10.6300    0.1570   -0.9380 C.ar    1  UNL1        0.0755
     25  C         11.6770    0.9710   -0.5050 C.ar    1  UNL1        0.0066
     26  C          9.5640    0.7080   -1.6460 C.ar    1  UNL1        0.0066
     27  O         11.6660   -1.9390   -0.4260 O.2     1  UNL1       -0.2451
     28  C         10.6520   -1.2690   -0.6490 C.2     1  UNL1        0.3380
     29  O          9.4060   -1.8170   -0.6430 O.3     1  UNL1       -0.4771
     30  H          9.1240   -2.0720    0.2620 H       1  UNL1        0.2954
@<TRIPOS>BOND
     1    15    14    1
     2    19    20    2
     3    23    26   ar
     4    23    21   ar
     5    14    13    1
     6    20    21    1
     7    20    18    1
     8    26    24   ar
     9    21    22   ar
    10    18    17    1
    11    24    28    1
    12    24    25   ar
    13    13    12    2
    14    13     9    1
    15    22    25   ar
    16    17    16    1
    17    28    29    1
    18    28    27    2
    19    29    30    1
    20    16     1    1
    21     9    11   ar
    22     9    10   ar
    23    11     8   ar
    24    10     7   ar
    25     1     2    1
    26     8     6   ar
    27     7     6   ar
    28     6     5    1
    29     2     3    1
    30     5     3    1
    31     5     4    2
