@<TRIPOS>MOLECULE
/tmp_id_yu8cqboozjo/tmp0.pdb
 30 31 0 0 0
SMALL
GASTEIGER

@<TRIPOS>ATOM
      1  C        -11.5820   40.9370   21.7460 C.3     1  UNL1        0.0513
      2  C        -12.4990   41.0390   20.5350 C.3     1  UNL1        0.2089
      3  O        -12.0930   40.0790   19.5690 O.3     1  UNL1       -0.4454
      4  O        -13.8380   38.6060   19.8670 O.2     1  UNL1       -0.2449
      5  C        -12.6540   38.8420   19.6830 C.2     1  UNL1        0.3412
      6  C        -11.6230   37.7820   19.5510 C.ar    1  UNL1        0.0757
      7  C        -11.9520   36.4850   19.8900 C.ar    1  UNL1        0.0066
      8  C        -10.3660   38.1270   19.0960 C.ar    1  UNL1        0.0066
      9  C         -9.7050   35.8130   19.3100 C.ar    1  UNL1        0.0755
     10  C        -10.9830   35.4900   19.7670 C.ar    1  UNL1        0.0066
     11  C         -9.3970   37.1310   18.9740 C.ar    1  UNL1        0.0066
     12  O         -8.2620   34.3250   18.1160 O.2     1  UNL1       -0.2451
     13  C         -8.6950   34.7750   19.1810 C.2     1  UNL1        0.3380
     14  O         -8.2520   34.3280   20.3890 O.3     1  UNL1       -0.4771
     15  H         -8.1070   33.3570   20.3870 H       1  UNL1        0.2954
     16  C        -12.3590   41.0650   23.0520 C.3     1  UNL1        0.0513
     17  C        -13.4870   40.0470   23.1360 C.3     1  UNL1        0.2089
     18  O        -12.9290   38.7400   23.0940 O.3     1  UNL1       -0.4454
     19  O        -12.9180   38.4290   25.3750 O.2     1  UNL1       -0.2449
     20  C        -12.4280   38.2660   24.2690 C.2     1  UNL1        0.3412
     21  C        -11.1740   37.5050   24.0370 C.ar    1  UNL1        0.0757
     22  C        -10.3340   37.8990   23.0160 C.ar    1  UNL1        0.0066
     23  C        -10.8890   36.4270   24.8490 C.ar    1  UNL1        0.0066
     24  C         -8.8460   36.0890   23.6060 C.ar    1  UNL1        0.0755
     25  C         -9.1570   37.1820   22.7970 C.ar    1  UNL1        0.0066
     26  C         -9.7120   35.7110   24.6310 C.ar    1  UNL1        0.0066
     27  O         -6.6800   35.7080   22.6610 O.2     1  UNL1       -0.2451
     28  C         -7.6180   35.3430   23.3780 C.2     1  UNL1        0.3380
     29  O         -7.5940   34.1620   24.0550 O.3     1  UNL1       -0.4771
     30  H         -7.1320   34.2450   24.9170 H       1  UNL1        0.2954
@<TRIPOS>BOND
     1    12    13    2
     2    11     8   ar
     3    11     9   ar
     4     8     6   ar
     5    13     9    1
     6    13    14    1
     7     9    10   ar
     8     6     5    1
     9     6     7   ar
    10     3     5    1
    11     3     2    1
    12     5     4    2
    13    10     7   ar
    14    15    14    1
    15     2     1    1
    16     1    16    1
    17    27    28    2
    18    25    22   ar
    19    25    24   ar
    20    22    21   ar
    21    16    17    1
    22    18    17    1
    23    18    20    1
    24    28    24    1
    25    28    29    1
    26    24    26   ar
    27    21    20    1
    28    21    23   ar
    29    29    30    1
    30    20    19    2
    31    26    23   ar
