@<TRIPOS>MOLECULE
/tmp_id_tqmfk9tttcc/tmp0.pdb
 30 31 0 0 0
SMALL
GASTEIGER

@<TRIPOS>ATOM
      1  C        -25.3270   10.1950  -34.0970 C.3     1  UNL1        0.0513
      2  C        -24.7050   11.5750  -33.9310 C.3     1  UNL1        0.2089
      3  O        -23.3080   11.4790  -34.1710 O.3     1  UNL1       -0.4454
      4  O        -22.7890   13.6260  -34.8230 O.2     1  UNL1       -0.2449
      5  C        -22.7780   12.4190  -35.0050 C.2     1  UNL1        0.3412
      6  C        -22.1670   11.7800  -36.1980 C.ar    1  UNL1        0.0757
      7  C        -22.9680   11.0380  -37.0420 C.ar    1  UNL1        0.0066
      8  C        -20.8160   11.9470  -36.4250 C.ar    1  UNL1        0.0066
      9  C        -21.0300   10.5920  -38.4140 C.ar    1  UNL1        0.0755
     10  C        -22.3940   10.4380  -38.1620 C.ar    1  UNL1        0.0066
     11  C        -20.2420   11.3470  -37.5460 C.ar    1  UNL1        0.0066
     12  O        -19.2250    9.7610  -39.7460 O.2     1  UNL1       -0.2451
     13  C        -20.4320    9.9660  -39.5820 C.2     1  UNL1        0.3380
     14  O        -21.3590    9.6120  -40.5150 O.3     1  UNL1       -0.4771
     15  H        -21.9110   10.3750  -40.7880 H       1  UNL1        0.2954
     16  C        -26.7650   10.1620  -33.5880 C.3     1  UNL1        0.0513
     17  C        -27.3370    8.7520  -33.6150 C.3     1  UNL1        0.2089
     18  O        -28.0610    8.5740  -34.8260 O.3     1  UNL1       -0.4454
     19  O        -28.8500    6.4480  -35.2160 O.2     1  UNL1       -0.2449
     20  C        -28.0170    7.3270  -35.3710 C.2     1  UNL1        0.3412
     21  C        -26.7970    7.1570  -36.2000 C.ar    1  UNL1        0.0757
     22  C        -26.3680    8.2130  -36.9780 C.ar    1  UNL1        0.0066
     23  C        -26.1320    5.9500  -36.1670 C.ar    1  UNL1        0.0066
     24  C        -24.5310    6.8410  -37.7420 C.ar    1  UNL1        0.0755
     25  C        -25.2220    8.0530  -37.7590 C.ar    1  UNL1        0.0066
     26  C        -24.9860    5.7900  -36.9470 C.ar    1  UNL1        0.0066
     27  O        -22.3860    5.9340  -38.2880 O.2     1  UNL1       -0.2451
     28  C        -23.3370    6.6750  -38.5550 C.2     1  UNL1        0.3380
     29  O        -23.3650    7.4390  -39.6820 O.3     1  UNL1       -0.4771
     30  H        -23.6560    6.9230  -40.4650 H       1  UNL1        0.2954
@<TRIPOS>BOND
     1    15    14    1
     2    14    13    1
     3    30    29    1
     4    12    13    2
     5    29    28    1
     6    13     9    1
     7    28    27    2
     8    28    24    1
     9     9    10   ar
    10     9    11   ar
    11    10     7   ar
    12    25    24   ar
    13    25    22   ar
    14    24    26   ar
    15    11     8   ar
    16     7     6   ar
    17    22    21   ar
    18    26    23   ar
    19     8     6   ar
    20    21    23   ar
    21    21    20    1
    22     6     5    1
    23    20    19    2
    24    20    18    1
    25     5     4    2
    26     5     3    1
    27    18    17    1
    28     3     2    1
    29     1     2    1
    30     1    16    1
    31    17    16    1
