@<TRIPOS>MOLECULE
/tmp_id_gzg8x9z1lt6/tmp0.pdb
 30 31 0 0 0
SMALL
GASTEIGER

@<TRIPOS>ATOM
      1  C          6.2190   24.6160  -17.0500 C.3     1  UNL1        0.0513
      2  C          7.2900   23.9680  -17.9170 C.3     1  UNL1        0.2089
      3  O          7.8120   22.8370  -17.2330 O.3     1  UNL1       -0.4454
      4  O          9.8900   23.8210  -17.1230 O.2     1  UNL1       -0.2449
      5  C          9.1460   22.8680  -16.9570 C.2     1  UNL1        0.3412
      6  C          9.6020   21.5630  -16.4130 C.ar    1  UNL1        0.0757
      7  C          8.6650   20.5810  -16.1620 C.ar    1  UNL1        0.0066
      8  C         10.9480   21.3740  -16.1750 C.ar    1  UNL1        0.0066
      9  C         10.4490   19.1410  -15.4000 C.ar    1  UNL1        0.0755
     10  C          9.0940   19.3570  -15.6510 C.ar    1  UNL1        0.0066
     11  C         11.3760   20.1490  -15.6630 C.ar    1  UNL1        0.0066
     12  O         10.9180   17.5540  -13.6730 O.2     1  UNL1       -0.2451
     13  C         10.8960   17.8630  -14.8680 C.2     1  UNL1        0.3380
     14  O         11.3020   17.0060  -15.8440 O.3     1  UNL1       -0.4771
     15  H         12.1300   17.3090  -16.2750 H       1  UNL1        0.2954
     16  C          6.4320   26.1200  -16.9240 C.3     1  UNL1        0.0513
     17  C          7.7110   26.4450  -16.1670 C.3     1  UNL1        0.2089
     18  O          7.5820   25.9810  -14.8290 O.3     1  UNL1       -0.4454
     19  O          9.7530   26.2390  -14.1080 O.2     1  UNL1       -0.2449
     20  C          8.7340   25.5770  -14.2230 C.2     1  UNL1        0.3412
     21  C          8.5980   24.1930  -13.7040 C.ar    1  UNL1        0.0757
     22  C          7.3530   23.5980  -13.7080 C.ar    1  UNL1        0.0066
     23  C          9.7210   23.5450  -13.2330 C.ar    1  UNL1        0.0066
     24  C          8.3470   21.6210  -12.7370 C.ar    1  UNL1        0.0755
     25  C          7.2260   22.2970  -13.2180 C.ar    1  UNL1        0.0066
     26  C          9.5940   22.2440  -12.7440 C.ar    1  UNL1        0.0066
     27  O          7.1480   19.7040  -11.9540 O.2     1  UNL1       -0.2451
     28  C          8.2130   20.2650  -12.2280 C.2     1  UNL1        0.3380
     29  O          9.4170   19.6460  -12.0770 O.3     1  UNL1       -0.4771
     30  H          9.4560   19.1230  -11.2480 H       1  UNL1        0.2954
@<TRIPOS>BOND
     1     2     3    1
     2     2     1    1
     3     3     5    1
     4     4     5    2
     5     1    16    1
     6     5     6    1
     7    16    17    1
     8     6     8   ar
     9     6     7   ar
    10    15    14    1
    11     8    11   ar
    12    17    18    1
    13     7    10   ar
    14    14    13    1
    15    11     9   ar
    16    10     9   ar
    17     9    13    1
    18    13    12    2
    19    18    20    1
    20    20    19    2
    21    20    21    1
    22    22    21   ar
    23    22    25   ar
    24    21    23   ar
    25    23    26   ar
    26    25    24   ar
    27    26    24   ar
    28    24    28    1
    29    28    29    1
    30    28    27    2
    31    29    30    1
