@<TRIPOS>MOLECULE
/tmp_id_m2y6qsv22wa/tmp0.pdb
 30 31 0 0 0
SMALL
GASTEIGER

@<TRIPOS>ATOM
      1  C          0.4030    3.0120   24.5540 C.3     1  UNL1        0.0513
      2  C          1.0740    2.7270   23.2170 C.3     1  UNL1        0.2089
      3  O          0.0680    2.4820   22.2430 O.3     1  UNL1       -0.4454
      4  O          1.4810    1.7380   20.5840 O.2     1  UNL1       -0.2449
      5  C          0.4280    1.6820   21.2000 C.2     1  UNL1        0.3412
      6  C         -0.6470    0.7050   20.8900 C.ar    1  UNL1        0.0757
      7  C         -1.8090    0.7330   21.6340 C.ar    1  UNL1        0.0066
      8  C         -0.4490   -0.2020   19.8680 C.ar    1  UNL1        0.0066
      9  C         -2.6410   -1.1120   20.3150 C.ar    1  UNL1        0.0755
     10  C         -2.8170   -0.1850   21.3430 C.ar    1  UNL1        0.0066
     11  C         -1.4580   -1.1200   19.5780 C.ar    1  UNL1        0.0066
     12  O         -4.1490   -2.9060   20.7980 O.2     1  UNL1       -0.2451
     13  C         -3.6940   -2.0690   20.0120 C.2     1  UNL1        0.3380
     14  O         -4.1490   -1.9540   18.7340 O.3     1  UNL1       -0.4771
     15  H         -3.8980   -1.0940   18.3340 H       1  UNL1        0.2954
     16  C         -0.6200    4.1370   24.4420 C.3     1  UNL1        0.0513
     17  C          0.0300    5.4450   24.0160 C.3     1  UNL1        0.2089
     18  O         -0.9090    6.5000   24.1880 O.3     1  UNL1       -0.4454
     19  O         -1.3400    8.3520   22.8900 O.2     1  UNL1       -0.2449
     20  C         -0.5950    7.6820   23.5890 C.2     1  UNL1        0.3412
     21  C          0.8050    8.0720   23.8940 C.ar    1  UNL1        0.0757
     22  C          1.7350    8.0690   22.8760 C.ar    1  UNL1        0.0066
     23  C          1.1310    8.4250   25.1880 C.ar    1  UNL1        0.0066
     24  C          3.4060    8.7950   24.4640 C.ar    1  UNL1        0.0755
     25  C          3.0510    8.4330   23.1640 C.ar    1  UNL1        0.0066
     26  C          2.4460    8.7910   25.4750 C.ar    1  UNL1        0.0066
     27  O          5.6220    9.5240   23.9310 O.2     1  UNL1       -0.2451
     28  C          4.7770    9.1760   24.7630 C.2     1  UNL1        0.3380
     29  O          5.0540    9.1150   26.0940 O.3     1  UNL1       -0.4771
     30  H          5.5110    8.2790   26.3340 H       1  UNL1        0.2954
@<TRIPOS>BOND
     1    15    14    1
     2    14    13    1
     3    11     8   ar
     4    11     9   ar
     5     8     6   ar
     6    13     9    1
     7    13    12    2
     8     9    10   ar
     9     4     5    2
    10     6     5    1
    11     6     7   ar
    12     5     3    1
    13    10     7   ar
    14     3     2    1
    15    22    25   ar
    16    22    21   ar
    17    19    20    2
    18    25    24   ar
    19     2     1    1
    20    20    21    1
    21    20    18    1
    22    21    23   ar
    23    27    28    2
    24    17    18    1
    25    17    16    1
    26    16     1    1
    27    24    28    1
    28    24    26   ar
    29    28    29    1
    30    23    26   ar
    31    29    30    1
