@<TRIPOS>MOLECULE
/tmp_id_4cp80u5l97u/tmp0.pdb
 30 31 0 0 0
SMALL
GASTEIGER

@<TRIPOS>ATOM
      1  C         -0.0880    2.9690   24.5650 C.3     1  UNL1        0.0513
      2  C         -1.5930    2.7740   24.6820 C.3     1  UNL1        0.2089
      3  O         -2.1470    2.6890   23.3760 O.3     1  UNL1       -0.4454
      4  O         -3.7280    1.0250   23.5560 O.2     1  UNL1       -0.2449
      5  C         -2.7250    1.5000   23.0470 C.2     1  UNL1        0.3412
      6  C         -1.9650    0.8270   21.9620 C.ar    1  UNL1        0.0757
      7  C         -2.5510   -0.2280   21.2930 C.ar    1  UNL1        0.0066
      8  C         -0.6970    1.2780   21.6580 C.ar    1  UNL1        0.0066
      9  C         -0.5530   -0.4230   19.9490 C.ar    1  UNL1        0.0755
     10  C         -1.8370   -0.8590   20.2750 C.ar    1  UNL1        0.0066
     11  C          0.0170    0.6460   20.6400 C.ar    1  UNL1        0.0066
     12  O          0.8630   -0.5100   18.0230 O.2     1  UNL1       -0.2451
     13  C          0.1910   -1.0820   18.8870 C.2     1  UNL1        0.3380
     14  O          0.0760   -2.4380   18.9350 O.3     1  UNL1       -0.4771
     15  H          0.0310   -2.7670   19.8570 H       1  UNL1        0.2954
     16  C          0.3160    4.4140   24.8370 C.3     1  UNL1        0.0513
     17  C         -0.0380    5.3240   23.6700 C.3     1  UNL1        0.2089
     18  O         -0.8020    6.4190   24.1570 O.3     1  UNL1       -0.4454
     19  O         -1.2780    8.3200   22.9500 O.2     1  UNL1       -0.2449
     20  C         -0.5170    7.6360   23.6150 C.2     1  UNL1        0.3412
     21  C          0.8740    8.0430   23.9390 C.ar    1  UNL1        0.0757
     22  C          1.2000    8.3220   25.2500 C.ar    1  UNL1        0.0066
     23  C          1.7970    8.1300   22.9170 C.ar    1  UNL1        0.0066
     24  C          3.4590    8.8010   24.5390 C.ar    1  UNL1        0.0755
     25  C          2.5060    8.7060   25.5530 C.ar    1  UNL1        0.0066
     26  C          3.1050    8.5130   23.2210 C.ar    1  UNL1        0.0066
     27  O          5.6800    9.5310   24.0330 O.2     1  UNL1       -0.2451
     28  C          4.8200    9.2000   24.8560 C.2     1  UNL1        0.3380
     29  O          5.0700    9.1780   26.1940 O.3     1  UNL1       -0.4771
     30  H          4.4570    9.7630   26.6890 H       1  UNL1        0.2954
@<TRIPOS>BOND
     1    12    13    2
     2    13    14    1
     3    13     9    1
     4    14    15    1
     5     9    10   ar
     6     9    11   ar
     7    10     7   ar
     8    11     8   ar
     9     7     6   ar
    10     8     6   ar
    11     6     5    1
    12    23    26   ar
    13    23    21   ar
    14    19    20    2
    15     5     3    1
    16     5     4    2
    17    26    24   ar
    18     3     2    1
    19    20    21    1
    20    20    18    1
    21    17    18    1
    22    17    16    1
    23    21    22   ar
    24    27    28    2
    25    24    28    1
    26    24    25   ar
    27     1     2    1
    28     1    16    1
    29    28    29    1
    30    22    25   ar
    31    29    30    1
