@<TRIPOS>MOLECULE
/tmp_id_vg0ez2pd9z/tmp0.pdb
 30 31 0 0 0
SMALL
GASTEIGER

@<TRIPOS>ATOM
      1  C         -1.6540   22.2290   -5.7780 C.3     1  UNL1        0.0513
      2  C         -2.5090   22.6270   -4.5830 C.3     1  UNL1        0.2089
      3  O         -3.6190   23.3830   -5.0450 O.3     1  UNL1       -0.4454
      4  O         -5.1150   22.7810   -3.4020 O.2     1  UNL1       -0.2449
      5  C         -4.8400   23.0070   -4.5700 C.2     1  UNL1        0.3412
      6  C         -5.8260   22.9000   -5.6750 C.ar    1  UNL1        0.0757
      7  C         -7.0870   22.4120   -5.3990 C.ar    1  UNL1        0.0066
      8  C         -5.4490   23.2910   -6.9440 C.ar    1  UNL1        0.0066
      9  C         -7.6560   22.6990   -7.7300 C.ar    1  UNL1        0.0755
     10  C         -8.0120   22.3120   -6.4380 C.ar    1  UNL1        0.0066
     11  C         -6.3750   23.1890   -7.9820 C.ar    1  UNL1        0.0066
     12  O         -9.8340   22.4070   -8.6740 O.2     1  UNL1       -0.2451
     13  C         -8.6220   22.5940   -8.8120 C.2     1  UNL1        0.3380
     14  O         -8.0450   22.7270  -10.0380 O.3     1  UNL1       -0.4771
     15  H         -8.7150   22.7660  -10.7540 H       1  UNL1        0.2954
     16  C         -2.4130   21.3170   -6.7350 C.3     1  UNL1        0.0513
     17  C         -1.6400   20.0380   -7.0230 C.3     1  UNL1        0.2089
     18  O         -2.4260   18.9250   -6.6160 O.3     1  UNL1       -0.4454
     19  O         -1.4530   18.6240   -4.5520 O.2     1  UNL1       -0.2449
     20  C         -2.4310   18.6520   -5.2820 C.2     1  UNL1        0.3412
     21  C         -3.8110   18.3830   -4.8050 C.ar    1  UNL1        0.0757
     22  C         -4.3200   17.1060   -4.9230 C.ar    1  UNL1        0.0066
     23  C         -4.5420   19.4180   -4.2600 C.ar    1  UNL1        0.0066
     24  C         -6.3770   17.8840   -3.9210 C.ar    1  UNL1        0.0755
     25  C         -5.6180   16.8540   -4.4770 C.ar    1  UNL1        0.0066
     26  C         -5.8390   19.1660   -3.8130 C.ar    1  UNL1        0.0066
     27  O         -8.7520   17.7000   -4.1420 O.2     1  UNL1       -0.2451
     28  C         -7.7290   17.6200   -3.4550 C.2     1  UNL1        0.3380
     29  O         -7.7650   17.2600   -2.1420 O.3     1  UNL1       -0.4771
     30  H         -7.0080   17.6340   -1.6410 H       1  UNL1        0.2954
@<TRIPOS>BOND
     1    15    14    1
     2    14    13    1
     3    13    12    2
     4    13     9    1
     5    11     9   ar
     6    11     8   ar
     7     9    10   ar
     8    17    16    1
     9    17    18    1
    10     8     6   ar
    11    16     1    1
    12    18    20    1
    13    10     7   ar
    14     1     2    1
    15     6     7   ar
    16     6     5    1
    17    20    21    1
    18    20    19    2
    19     3     2    1
    20     3     5    1
    21    22    21   ar
    22    22    25   ar
    23    21    23   ar
    24     5     4    2
    25    25    24   ar
    26    23    26   ar
    27    27    28    2
    28    24    26   ar
    29    24    28    1
    30    28    29    1
    31    29    30    1
