@<TRIPOS>MOLECULE
/tmp_id_tr5ojdlpxnm/tmp0.pdb
 30 31 0 0 0
SMALL
GASTEIGER

@<TRIPOS>ATOM
      1  C          6.1590   24.4360  -16.9260 C.3     1  UNL1        0.0513
      2  C          7.3340   23.9280  -17.7520 C.3     1  UNL1        0.2089
      3  O          7.8810   22.7820  -17.1140 O.3     1  UNL1       -0.4454
      4  O         10.0160   23.5160  -17.5640 O.2     1  UNL1       -0.2449
      5  C          9.2400   22.6790  -17.1310 C.2     1  UNL1        0.3412
      6  C          9.6780   21.3880  -16.5440 C.ar    1  UNL1        0.0757
      7  C         11.0290   21.1420  -16.4060 C.ar    1  UNL1        0.0066
      8  C          8.7210   20.4730  -16.1550 C.ar    1  UNL1        0.0066
      9  C         10.4920   18.9870  -15.4540 C.ar    1  UNL1        0.0755
     10  C         11.4400   19.9290  -15.8540 C.ar    1  UNL1        0.0066
     11  C          9.1320   19.2600  -15.6040 C.ar    1  UNL1        0.0066
     12  O         10.7490   17.3740  -13.7070 O.2     1  UNL1       -0.2451
     13  C         10.9210   17.7220  -14.8790 C.2     1  UNL1        0.3380
     14  O         11.5530   16.9260  -15.7850 O.3     1  UNL1       -0.4771
     15  H         11.3980   17.2280  -16.7060 H       1  UNL1        0.2954
     16  C          6.2650   25.9330  -16.6610 C.3     1  UNL1        0.0513
     17  C          7.6590   26.3230  -16.1910 C.3     1  UNL1        0.2089
     18  O          7.7850   26.0000  -14.8120 O.3     1  UNL1       -0.4454
     19  O         10.0710   25.9990  -14.5400 O.2     1  UNL1       -0.2449
     20  C          8.9780   25.4650  -14.4300 C.2     1  UNL1        0.3412
     21  C          8.7870   24.1130  -13.8460 C.ar    1  UNL1        0.0757
     22  C          9.8960   23.3920  -13.4550 C.ar    1  UNL1        0.0066
     23  C          7.5050   23.6200  -13.7140 C.ar    1  UNL1        0.0066
     24  C          8.4300   21.6000  -12.7650 C.ar    1  UNL1        0.0755
     25  C          9.7160   22.1210  -12.9100 C.ar    1  UNL1        0.0066
     26  C          7.3250   22.3490  -13.1670 C.ar    1  UNL1        0.0066
     27  O          7.1560   19.7740  -11.8890 O.2     1  UNL1       -0.2451
     28  C          8.2430   20.2760  -12.1940 C.2     1  UNL1        0.3380
     29  O          9.4190   19.6130  -12.0230 O.3     1  UNL1       -0.4771
     30  H         10.1250   19.9640  -12.6090 H       1  UNL1        0.2954
@<TRIPOS>BOND
     1     2     3    1
     2     2     1    1
     3     4     5    2
     4     5     3    1
     5     5     6    1
     6     1    16    1
     7    15    14    1
     8    16    17    1
     9     6     7   ar
    10     6     8   ar
    11     7    10   ar
    12    17    18    1
    13     8    11   ar
    14    10     9   ar
    15    14    13    1
    16    11     9   ar
    17     9    13    1
    18    13    12    2
    19    18    20    1
    20    19    20    2
    21    20    21    1
    22    21    23   ar
    23    21    22   ar
    24    23    26   ar
    25    22    25   ar
    26    26    24   ar
    27    25    24   ar
    28    24    28    1
    29    30    29    1
    30    28    29    1
    31    28    27    2
