@<TRIPOS>MOLECULE
/tmp_id_fk8z6owz3de/tmp0.pdb
 30 31 0 0 0
SMALL
GASTEIGER

@<TRIPOS>ATOM
      1  C         -5.3150   14.8880   -5.2270 C.3     1  UNL1        0.0513
      2  C         -5.6200   14.7550   -6.7120 C.3     1  UNL1        0.2089
      3  O         -4.4530   15.0870   -7.4520 O.3     1  UNL1       -0.4454
      4  O         -4.9270   13.5680   -9.1160 O.2     1  UNL1       -0.2449
      5  C         -4.1390   14.2510   -8.4810 C.2     1  UNL1        0.3412
      6  C         -2.6780   14.2700   -8.7470 C.ar    1  UNL1        0.0757
      7  C         -1.8060   14.3140   -7.6790 C.ar    1  UNL1        0.0066
      8  C         -2.2380   14.2430  -10.0550 C.ar    1  UNL1        0.0066
      9  C          0.0360   14.3060   -9.2420 C.ar    1  UNL1        0.0755
     10  C         -0.4340   14.3310   -7.9290 C.ar    1  UNL1        0.0066
     11  C         -0.8660   14.2610  -10.3050 C.ar    1  UNL1        0.0066
     12  O          1.9990   14.1030  -10.5950 O.2     1  UNL1       -0.2451
     13  C          1.4670   14.3240   -9.5030 C.2     1  UNL1        0.3380
     14  O          2.1950   14.6180   -8.3910 O.3     1  UNL1       -0.4771
     15  H          3.1400   14.3800   -8.5000 H       1  UNL1        0.2954
     16  C         -4.1050   14.0530   -4.8240 C.3     1  UNL1        0.0513
     17  C         -4.3120   12.5780   -5.1350 C.3     1  UNL1        0.2089
     18  O         -5.5040   12.1380   -4.4960 O.3     1  UNL1       -0.4454
     19  O         -4.4570   10.6650   -3.0710 O.2     1  UNL1       -0.2449
     20  C         -5.3400   11.4690   -3.3210 C.2     1  UNL1        0.3412
     21  C         -6.3990   11.8450   -2.3500 C.ar    1  UNL1        0.0757
     22  C         -6.6490   11.0100   -1.2800 C.ar    1  UNL1        0.0066
     23  C         -7.0990   13.0170   -2.5480 C.ar    1  UNL1        0.0066
     24  C         -8.3670   12.5430   -0.5470 C.ar    1  UNL1        0.0755
     25  C         -7.6450   11.3630   -0.3690 C.ar    1  UNL1        0.0066
     26  C         -8.0950   13.3700   -1.6360 C.ar    1  UNL1        0.0066
     27  O        -10.3980   12.2300    0.6790 O.2     1  UNL1       -0.2451
     28  C         -9.4040   12.9110    0.4040 C.2     1  UNL1        0.3380
     29  O         -9.1700   14.1180    0.9880 O.3     1  UNL1       -0.4771
     30  H         -8.7070   14.0230    1.8490 H       1  UNL1        0.2954
@<TRIPOS>BOND
     1    12    13    2
     2    11     8   ar
     3    11     9   ar
     4     8     6   ar
     5    13     9    1
     6    13    14    1
     7     9    10   ar
     8     4     5    2
     9     6     5    1
    10     6     7   ar
    11    15    14    1
    12     5     3    1
    13    10     7   ar
    14     3     2    1
    15     2     1    1
    16     1    16    1
    17    17    16    1
    18    17    18    1
    19    18    20    1
    20    20    19    2
    21    20    21    1
    22    23    21   ar
    23    23    26   ar
    24    21    22   ar
    25    26    24   ar
    26    22    25   ar
    27    24    25   ar
    28    24    28    1
    29    28    27    2
    30    28    29    1
    31    29    30    1
