@<TRIPOS>MOLECULE
/tmp_id_b6ufweatio8/tmp0.pdb
 30 31 0 0 0
SMALL
GASTEIGER

@<TRIPOS>ATOM
      1  C        -26.7470   10.4290  -33.5880 C.3     1  UNL1        0.0513
      2  C        -27.3620    9.0370  -33.5480 C.3     1  UNL1        0.2089
      3  O        -28.0460    8.8020  -34.7710 O.3     1  UNL1       -0.4454
      4  O        -28.8150    6.6470  -35.0240 O.2     1  UNL1       -0.2449
      5  C        -27.9980    7.5260  -35.2470 C.2     1  UNL1        0.3412
      6  C        -26.7970    7.3250  -36.0970 C.ar    1  UNL1        0.0757
      7  C        -26.1500    6.1070  -36.0610 C.ar    1  UNL1        0.0066
      8  C        -26.3640    8.3650  -36.8950 C.ar    1  UNL1        0.0066
      9  C        -24.5630    6.9550  -37.6730 C.ar    1  UNL1        0.0755
     10  C        -25.0220    5.9200  -36.8580 C.ar    1  UNL1        0.0066
     11  C        -25.2350    8.1770  -37.6920 C.ar    1  UNL1        0.0066
     12  O        -22.4660    5.9710  -38.2690 O.2     1  UNL1       -0.2451
     13  C        -23.3860    6.7580  -38.5050 C.2     1  UNL1        0.3380
     14  O        -23.3930    7.5520  -39.6120 O.3     1  UNL1       -0.4771
     15  H        -22.4870    7.8270  -39.8680 H       1  UNL1        0.2954
     16  C        -25.2800   10.3850  -34.0000 C.3     1  UNL1        0.0513
     17  C        -24.5490   11.6620  -33.6100 C.3     1  UNL1        0.2089
     18  O        -23.2100   11.5860  -34.0820 O.3     1  UNL1       -0.4454
     19  O        -23.0240   13.7170  -34.9330 O.2     1  UNL1       -0.2449
     20  C        -22.8530   12.5110  -35.0160 C.2     1  UNL1        0.3412
     21  C        -22.2110   11.8570  -36.1850 C.ar    1  UNL1        0.0757
     22  C        -22.9950   11.1230  -37.0520 C.ar    1  UNL1        0.0066
     23  C        -20.8520   12.0050  -36.3680 C.ar    1  UNL1        0.0066
     24  C        -21.0190   10.6420  -38.3560 C.ar    1  UNL1        0.0755
     25  C        -22.3920   10.5070  -38.1490 C.ar    1  UNL1        0.0066
     26  C        -20.2490   11.3900  -37.4660 C.ar    1  UNL1        0.0066
     27  O        -19.1960    9.7000  -39.5870 O.2     1  UNL1       -0.2451
     28  C        -20.3910   10.0010  -39.5010 C.2     1  UNL1        0.3380
     29  O        -21.2750    9.7500  -40.5050 O.3     1  UNL1       -0.4771
     30  H        -20.8200    9.5970  -41.3620 H       1  UNL1        0.2954
@<TRIPOS>BOND
     1    30    29    1
     2    29    28    1
     3    15    14    1
     4    14    13    1
     5    27    28    2
     6    28    24    1
     7    13    12    2
     8    13     9    1
     9    24    25   ar
    10    24    26   ar
    11    25    22   ar
    12    11     9   ar
    13    11     8   ar
    14     9    10   ar
    15    26    23   ar
    16    22    21   ar
    17     8     6   ar
    18    10     7   ar
    19    23    21   ar
    20    21    20    1
    21     6     7   ar
    22     6     5    1
    23     5     4    2
    24     5     3    1
    25    20    19    2
    26    20    18    1
    27     3     2    1
    28    18    17    1
    29    16    17    1
    30    16     1    1
    31     1     2    1
