@<TRIPOS>MOLECULE
/tmp_id_loxmhagvmm8/tmp0.pdb
 30 31 0 0 0
SMALL
GASTEIGER

@<TRIPOS>ATOM
      1  C         -2.2160   20.9490   -7.0150 C.3     1  UNL1        0.0513
      2  C         -1.6400   19.5450   -7.1320 C.3     1  UNL1        0.2089
      3  O         -2.5710   18.6200   -6.5860 O.3     1  UNL1       -0.4454
      4  O         -1.6350   18.6700   -4.4830 O.2     1  UNL1       -0.2449
      5  C         -2.5930   18.5250   -5.2260 C.2     1  UNL1        0.3412
      6  C         -3.9610   18.2140   -4.7420 C.ar    1  UNL1        0.0757
      7  C         -4.7200   19.2250   -4.1880 C.ar    1  UNL1        0.0066
      8  C         -4.4320   16.9220   -4.8600 C.ar    1  UNL1        0.0066
      9  C         -6.5040   17.6340   -3.8400 C.ar    1  UNL1        0.0755
     10  C         -6.0040   18.9320   -3.7330 C.ar    1  UNL1        0.0066
     11  C         -5.7180   16.6290   -4.4040 C.ar    1  UNL1        0.0066
     12  O         -8.8460   17.2090   -4.0770 O.2     1  UNL1       -0.2451
     13  C         -7.8440   17.3290   -3.3650 C.2     1  UNL1        0.3380
     14  O         -7.8960   17.1800   -2.0130 O.3     1  UNL1       -0.4771
     15  H         -8.2850   17.9670   -1.5750 H       1  UNL1        0.2954
     16  C         -1.3200   21.8570   -6.1790 C.3     1  UNL1        0.0513
     17  C         -2.1150   22.6140   -5.1260 C.3     1  UNL1        0.2089
     18  O         -3.4300   22.0780   -5.0700 O.3     1  UNL1       -0.4454
     19  O         -4.4670   23.7340   -3.8540 O.2     1  UNL1       -0.2449
     20  C         -4.4280   22.9660   -4.8020 C.2     1  UNL1        0.3412
     21  C         -5.4950   22.8850   -5.8310 C.ar    1  UNL1        0.0757
     22  C         -5.2160   23.3040   -7.1160 C.ar    1  UNL1        0.0066
     23  C         -6.7320   22.3930   -5.4700 C.ar    1  UNL1        0.0066
     24  C         -7.4800   22.7360   -7.7420 C.ar    1  UNL1        0.0755
     25  C         -6.2200   23.2300   -8.0820 C.ar    1  UNL1        0.0066
     26  C         -7.7360   22.3180   -6.4370 C.ar    1  UNL1        0.0066
     27  O         -9.7380   22.6110   -8.5220 O.2     1  UNL1       -0.2451
     28  C         -8.5250   22.6580   -8.7500 C.2     1  UNL1        0.3380
     29  O         -8.0260   22.6420  -10.0170 O.3     1  UNL1       -0.4771
     30  H         -7.0910   22.9410  -10.0440 H       1  UNL1        0.2954
@<TRIPOS>BOND
     1    30    29    1
     2    29    28    1
     3    28    27    2
     4    28    24    1
     5    25    24   ar
     6    25    22   ar
     7    24    26   ar
     8     2     1    1
     9     2     3    1
    10    22    21   ar
    11     1    16    1
    12     3     5    1
    13    26    23   ar
    14    16    17    1
    15    21    23   ar
    16    21    20    1
    17     5     6    1
    18     5     4    2
    19    17    18    1
    20    18    20    1
    21     8     6   ar
    22     8    11   ar
    23    20    19    2
    24     6     7   ar
    25    11     9   ar
    26     7    10   ar
    27    12    13    2
    28     9    10   ar
    29     9    13    1
    30    13    14    1
    31    14    15    1
