@<TRIPOS>MOLECULE
/tmp_id_bo2z8xrkwqs/tmp0.pdb
 30 31 0 0 0
SMALL
GASTEIGER

@<TRIPOS>ATOM
      1  C          7.7040   -3.5710  -14.3510 C.3     1  UNL1        0.0513
      2  C          6.3460   -3.4220  -13.6790 C.3     1  UNL1        0.2089
      3  O          6.4280   -3.9420  -12.3590 O.3     1  UNL1       -0.4454
      4  O          5.0730   -2.6340  -11.0350 O.2     1  UNL1       -0.2449
      5  C          5.3540   -3.7020  -11.5540 C.2     1  UNL1        0.3412
      6  C          4.5440   -4.9340  -11.3760 C.ar    1  UNL1        0.0757
      7  C          5.1540   -6.1620  -11.5270 C.ar    1  UNL1        0.0066
      8  C          3.2040   -4.8110  -11.0670 C.ar    1  UNL1        0.0066
      9  C          3.0360   -7.2210  -11.0480 C.ar    1  UNL1        0.0755
     10  C          4.3920   -7.3180  -11.3610 C.ar    1  UNL1        0.0066
     11  C          2.4430   -5.9680  -10.9010 C.ar    1  UNL1        0.0066
     12  O          2.2940   -9.1840   -9.9000 O.2     1  UNL1       -0.2451
     13  C          2.2420   -8.4270  -10.8740 C.2     1  UNL1        0.3380
     14  O          1.4040   -8.6540  -11.9230 O.3     1  UNL1       -0.4771
     15  H          1.4120   -9.5950  -12.1990 H       1  UNL1        0.2954
     16  C          7.7790   -2.7780  -15.6510 C.3     1  UNL1        0.0513
     17  C          8.9150   -1.7660  -15.6260 C.3     1  UNL1        0.2089
     18  O          8.5760   -0.7180  -14.7250 O.3     1  UNL1       -0.4454
     19  O         10.7490   -0.3870  -14.0440 O.2     1  UNL1       -0.2449
     20  C          9.5460   -0.3520  -13.8420 C.2     1  UNL1        0.3412
     21  C          8.9460    0.1080  -12.5630 C.ar    1  UNL1        0.0757
     22  C          7.6420   -0.2380  -12.2760 C.ar    1  UNL1        0.0066
     23  C          9.7130    0.8670  -11.7040 C.ar    1  UNL1        0.0066
     24  C          7.8330    0.9640  -10.1890 C.ar    1  UNL1        0.0755
     25  C          7.0790    0.1960  -11.0750 C.ar    1  UNL1        0.0066
     26  C          9.1490    1.3000  -10.5020 C.ar    1  UNL1        0.0066
     27  O          7.2830    0.8010   -7.8660 O.2     1  UNL1       -0.2451
     28  C          7.2460    1.4150   -8.9370 C.2     1  UNL1        0.3380
     29  O          6.6300    2.6230   -9.0570 O.3     1  UNL1       -0.4771
     30  H          6.1080    2.6860   -9.8870 H       1  UNL1        0.2954
@<TRIPOS>BOND
     1    16    17    1
     2    16     1    1
     3    17    18    1
     4    18    20    1
     5     1     2    1
     6    19    20    2
     7    20    21    1
     8     2     3    1
     9    21    22   ar
    10    21    23   ar
    11     3     5    1
    12    22    25   ar
    13    15    14    1
    14    14    13    1
    15    23    26   ar
    16     5     6    1
    17     5     4    2
    18     7     6   ar
    19     7    10   ar
    20     6     8   ar
    21    10     9   ar
    22    25    24   ar
    23     8    11   ar
    24     9    11   ar
    25     9    13    1
    26    13    12    2
    27    26    24   ar
    28    24    28    1
    29    30    29    1
    30    29    28    1
    31    28    27    2
